<?xml version='1.0' encoding='ISO-8859-1'?>
<febio_spec version="2.0">
  <Module type="solid"/>
  <Control>
    <time_steps>10</time_steps>
    <step_size>0.1</step_size>
    <max_refs>15</max_refs>
    <max_ups>10</max_ups>
    <dtol>0.001</dtol>
    <etol>0.01</etol>
    <rtol>10000000000.0</rtol>
    <lstol>0.9</lstol>
    <time_stepper>
      <dtmin>0.03</dtmin>
      <dtmax>0.3</dtmax>
      <max_retries>5</max_retries>
      <opt_iter>11</opt_iter>
    </time_stepper>
    <analysis type="static"/>
  </Control>
  <Material>
    <material id="1" name="HyperelasticBase" type="Mooney-Rivlin">
      <density>1</density>
      <c1>100</c1>
      <c2>0</c2>
      <k>820</k>
    </material>
    <material id="2" name="Indenter" type="rigid body">
      <density>1</density>
    </material>
  </Material>
  <Geometry>
    <Nodes>
      <node id="1">-0.50000, -0.50000, -0.15000</node>
      <node id="2">-0.46875, -0.50000, -0.15000</node>
      <node id="3">-0.43750, -0.50000, -0.15000</node>
      <node id="4">-0.40625, -0.50000, -0.15000</node>
      <node id="5">-0.37500, -0.50000, -0.15000</node>
      <node id="6">-0.34375, -0.50000, -0.15000</node>
      <node id="7">-0.31250, -0.50000, -0.15000</node>
      <node id="8">-0.28125, -0.50000, -0.15000</node>
      <node id="9">-0.25000, -0.50000, -0.15000</node>
      <node id="10">-0.21875, -0.50000, -0.15000</node>
      <node id="11">-0.18750, -0.50000, -0.15000</node>
      <node id="12">-0.15625, -0.50000, -0.15000</node>
      <node id="13">-0.12500, -0.50000, -0.15000</node>
      <node id="14">-0.09375, -0.50000, -0.15000</node>
      <node id="15">-0.06250, -0.50000, -0.15000</node>
      <node id="16">-0.03125, -0.50000, -0.15000</node>
      <node id="17">0.00000, -0.50000, -0.15000</node>
      <node id="18">0.03125, -0.50000, -0.15000</node>
      <node id="19">0.06250, -0.50000, -0.15000</node>
      <node id="20">0.09375, -0.50000, -0.15000</node>
<!-- ... 4129 like lines cut -->
    </Nodes>
    <Elements mat="1" type="hex8">
      <elem id="1">1, 2, 35, 34, 1090, 1091, 1124, 1123</elem>
      <elem id="2">2, 3, 36, 35, 1091, 1092, 1125, 1124</elem>
      <elem id="3">3, 4, 37, 36, 1092, 1093, 1126, 1125</elem>
      <elem id="4">4, 5, 38, 37, 1093, 1094, 1127, 1126</elem>
      <elem id="5">5, 6, 39, 38, 1094, 1095, 1128, 1127</elem>
      <elem id="6">6, 7, 40, 39, 1095, 1096, 1129, 1128</elem>
      <elem id="7">7, 8, 41, 40, 1096, 1097, 1130, 1129</elem>
      <elem id="8">8, 9, 42, 41, 1097, 1098, 1131, 1130</elem>
      <elem id="9">9, 10, 43, 42, 1098, 1099, 1132, 1131</elem>
      <elem id="10">10, 11, 44, 43, 1099, 1100, 1133, 1132</elem>
      <elem id="11">11, 12, 45, 44, 1100, 1101, 1134, 1133</elem>
      <elem id="12">12, 13, 46, 45, 1101, 1102, 1135, 1134</elem>
      <elem id="13">13, 14, 47, 46, 1102, 1103, 1136, 1135</elem>
      <elem id="14">14, 15, 48, 47, 1103, 1104, 1137, 1136</elem>
      <elem id="15">15, 16, 49, 48, 1104, 1105, 1138, 1137</elem>
      <elem id="16">16, 17, 50, 49, 1105, 1106, 1139, 1138</elem>
      <elem id="17">17, 18, 51, 50, 1106, 1107, 1140, 1139</elem>
      <elem id="18">18, 19, 52, 51, 1107, 1108, 1141, 1140</elem>
      <elem id="19">19, 20, 53, 52, 1108, 1109, 1142, 1141</elem>
      <elem id="20">20, 21, 54, 53, 1109, 1110, 1143, 1142</elem>
<!-- ... 2028 like lines cut -->
    </Elements>
    <Elements mat="2" type="hex8">
      <elem id="2049">3268, 3269, 3290, 3289, 3709, 3710, 3731, 3730</elem>
      <elem id="2050">3269, 3270, 3291, 3290, 3710, 3711, 3732, 3731</elem>
      <elem id="2051">3270, 3271, 3292, 3291, 3711, 3712, 3733, 3732</elem>
      <elem id="2052">3271, 3272, 3293, 3292, 3712, 3713, 3734, 3733</elem>
      <elem id="2053">3272, 3273, 3294, 3293, 3713, 3714, 3735, 3734</elem>
      <elem id="2054">3273, 3274, 3295, 3294, 3714, 3715, 3736, 3735</elem>
      <elem id="2055">3274, 3275, 3296, 3295, 3715, 3716, 3737, 3736</elem>
      <elem id="2056">3275, 3276, 3297, 3296, 3716, 3717, 3738, 3737</elem>
      <elem id="2057">3276, 3277, 3298, 3297, 3717, 3718, 3739, 3738</elem>
      <elem id="2058">3277, 3278, 3299, 3298, 3718, 3719, 3740, 3739</elem>
      <elem id="2059">3278, 3279, 3300, 3299, 3719, 3720, 3741, 3740</elem>
      <elem id="2060">3279, 3280, 3301, 3300, 3720, 3721, 3742, 3741</elem>
      <elem id="2061">3280, 3281, 3302, 3301, 3721, 3722, 3743, 3742</elem>
      <elem id="2062">3281, 3282, 3303, 3302, 3722, 3723, 3744, 3743</elem>
      <elem id="2063">3282, 3283, 3304, 3303, 3723, 3724, 3745, 3744</elem>
      <elem id="2064">3283, 3284, 3305, 3304, 3724, 3725, 3746, 3745</elem>
      <elem id="2065">3284, 3285, 3306, 3305, 3725, 3726, 3747, 3746</elem>
      <elem id="2066">3285, 3286, 3307, 3306, 3726, 3727, 3748, 3747</elem>
      <elem id="2067">3286, 3287, 3308, 3307, 3727, 3728, 3749, 3748</elem>
      <elem id="2068">3287, 3288, 3309, 3308, 3728, 3729, 3750, 3749</elem>
<!-- ... 380 like lines cut -->
    </Elements>
    <Surface name="MasterSurface01">
      <quad4 id="1">2179, 2180, 2213, 2212</quad4>
      <quad4 id="2">2180, 2181, 2214, 2213</quad4>
      <quad4 id="3">2181, 2182, 2215, 2214</quad4>
      <quad4 id="4">2182, 2183, 2216, 2215</quad4>
      <quad4 id="5">2183, 2184, 2217, 2216</quad4>
      <quad4 id="6">2184, 2185, 2218, 2217</quad4>
      <quad4 id="7">2185, 2186, 2219, 2218</quad4>
      <quad4 id="8">2186, 2187, 2220, 2219</quad4>
      <quad4 id="9">2187, 2188, 2221, 2220</quad4>
      <quad4 id="10">2188, 2189, 2222, 2221</quad4>
      <quad4 id="11">2189, 2190, 2223, 2222</quad4>
      <quad4 id="12">2190, 2191, 2224, 2223</quad4>
      <quad4 id="13">2191, 2192, 2225, 2224</quad4>
      <quad4 id="14">2192, 2193, 2226, 2225</quad4>
      <quad4 id="15">2193, 2194, 2227, 2226</quad4>
      <quad4 id="16">2194, 2195, 2228, 2227</quad4>
      <quad4 id="17">2195, 2196, 2229, 2228</quad4>
      <quad4 id="18">2196, 2197, 2230, 2229</quad4>
      <quad4 id="19">2197, 2198, 2231, 2230</quad4>
      <quad4 id="20">2198, 2199, 2232, 2231</quad4>
<!-- ... 1004 like lines cut -->
    </Surface>
    <Surface name="SlaveSurface01">
      <quad4 id="1">3268, 3269, 3290, 3289</quad4>
      <quad4 id="2">3269, 3270, 3291, 3290</quad4>
      <quad4 id="3">3270, 3271, 3292, 3291</quad4>
      <quad4 id="4">3271, 3272, 3293, 3292</quad4>
      <quad4 id="5">3272, 3273, 3294, 3293</quad4>
      <quad4 id="6">3273, 3274, 3295, 3294</quad4>
      <quad4 id="7">3274, 3275, 3296, 3295</quad4>
      <quad4 id="8">3275, 3276, 3297, 3296</quad4>
      <quad4 id="9">3276, 3277, 3298, 3297</quad4>
      <quad4 id="10">3277, 3278, 3299, 3298</quad4>
      <quad4 id="11">3278, 3279, 3300, 3299</quad4>
      <quad4 id="12">3279, 3280, 3301, 3300</quad4>
      <quad4 id="13">3280, 3281, 3302, 3301</quad4>
      <quad4 id="14">3281, 3282, 3303, 3302</quad4>
      <quad4 id="15">3282, 3283, 3304, 3303</quad4>
      <quad4 id="16">3283, 3284, 3305, 3304</quad4>
      <quad4 id="17">3284, 3285, 3306, 3305</quad4>
      <quad4 id="18">3285, 3286, 3307, 3306</quad4>
      <quad4 id="19">3286, 3287, 3308, 3307</quad4>
      <quad4 id="20">3287, 3288, 3309, 3308</quad4>
<!-- ... 380 like lines cut -->
    </Surface>
  </Geometry>
  <Boundary>
    <fix bc="xyz">
      <node id="1"/>
      <node id="2"/>
      <node id="3"/>
      <node id="4"/>
      <node id="5"/>
      <node id="6"/>
      <node id="7"/>
      <node id="8"/>
      <node id="9"/>
      <node id="10"/>
      <node id="11"/>
      <node id="12"/>
      <node id="13"/>
      <node id="14"/>
      <node id="15"/>
      <node id="16"/>
      <node id="17"/>
      <node id="18"/>
      <node id="19"/>
      <node id="20"/>
<!-- ... 1069 like lines cut -->
    </fix>
  </Boundary>
  <Contact>
    <contact type="sliding_with_gaps">
      <laugon>1</laugon>
      <tolerance>0.001</tolerance>
      <penalty>100</penalty>
      <two_pass>0</two_pass>
      <auto_penalty>0</auto_penalty>
      <fric_coeff>0</fric_coeff>
      <fric_penalty>0</fric_penalty>
      <search_tol>0.01</search_tol>
      <minaug>0</minaug>
      <maxaug>10</maxaug>
      <gaptol>0</gaptol>
      <seg_up>0</seg_up>
      <surface set="MasterSurface01" type="master"/>
      <surface set="SlaveSurface01" type="slave"/>
    </contact>
  </Contact>
  <Constraints>
    <rigid_body mat="2">
      <fixed bc="x"/>
      <fixed bc="y"/>
      <prescribed bc="z" lc="1">-0.01</prescribed>
      <fixed bc="Rx"/>
      <fixed bc="Ry"/>
      <fixed bc="Rz"/>
    </rigid_body>
  </Constraints>
  <LoadData>
    <loadcurve id="1" type="smooth">
      <loadpoint>0, 0</loadpoint>
      <loadpoint>1, 1</loadpoint>
    </loadcurve>
  </LoadData>
  <Output>
    <plotfile type="febio">
      <var type="displacement"/>
      <var type="stress"/>
      <shell_strain>1</shell_strain>
    </plotfile>
    <logfile>
      <element_data data="Ex;Ey;Ez;Exy;Eyz;Exz;sx;sy;sz;sxy;syz;sxz">1:2048</element_data>
    </logfile>
  </Output>
</febio_spec>
