<?xml version='1.0' encoding='ISO-8859-1'?>
<febio_spec version="2.0">
  <Module type="solid" />
  <Control>
    <time_steps>1</time_steps>
    <step_size>1</step_size>
    <max_refs>15</max_refs>
    <max_ups>10</max_ups>
    <dtol>0.001</dtol>
    <etol>0.01</etol>
    <rtol>0</rtol>
    <lstol>0.9</lstol>
    <time_stepper>
      <dtmin>0.01</dtmin>
      <dtmax>0.1</dtmax>
      <max_retries>5</max_retries>
      <opt_iter>10</opt_iter>
    </time_stepper>
    <analysis type="static" />
  </Control>
  <Material>
    <material id="1" type="neo-Hookean">
      <density>1000</density>
      <E>13995464644.0</E>
      <v>0.3</v>
    </material>
    <material id="2" type="neo-Hookean">
      <density>1000</density>
      <E>13995591909.0</E>
      <v>0.3</v>
    </material>
    <material id="3" type="neo-Hookean">
      <density>1000</density>
      <E>13995653338.0</E>
      <v>0.3</v>
    </material>
    <material id="4" type="neo-Hookean">
      <density>1000</density>
      <E>13995639007.0</E>
      <v>0.3</v>
    </material>
    <material id="5" type="neo-Hookean">
      <density>1000</density>
      <E>13995538233.0</E>
      <v>0.3</v>
    </material>
    <material id="6" type="neo-Hookean">
      <density>1000</density>
      <E>13995342682.0</E>
      <v>0.3</v>
    </material>
    <material id="7" type="neo-Hookean">
      <density>1000</density>
      <E>13995049646.0</E>
      <v>0.3</v>
    </material>
    <material id="8" type="neo-Hookean">
      <density>1000</density>
      <E>13994663728.0</E>
      <v>0.3</v>
    </material>
    <material id="9" type="neo-Hookean">
      <density>1000</density>
      <E>13994192730.0</E>
      <v>0.3</v>
    </material>
    <material id="10" type="neo-Hookean">
      <density>1000</density>
      <E>13993636618.0</E>
      <v>0.3</v>
    </material>
    <material id="11" type="neo-Hookean">
      <density>1000</density>
      <E>13993008747.0</E>
      <v>0.3</v>
    </material>
    <material id="12" type="neo-Hookean">
      <density>1000</density>
      <E>13992332204.0</E>
      <v>0.3</v>
    </material>
    <material id="13" type="neo-Hookean">
      <density>1000</density>
      <E>13991625284.0</E>
      <v>0.3</v>
    </material>
    <material id="14" type="neo-Hookean">
      <density>1000</density>
      <E>13990898547.0</E>
      <v>0.3</v>
    </material>
    <material id="15" type="neo-Hookean">
      <density>1000</density>
      <E>13990180018.0</E>
      <v>0.3</v>
    </material>
    <material id="16" type="neo-Hookean">
      <density>1000</density>
      <E>13989490907.0</E>
      <v>0.3</v>
    </material>
    <material id="17" type="neo-Hookean">
      <density>1000</density>
      <E>13988846050.0</E>
      <v>0.3</v>
    </material>
    <material id="18" type="neo-Hookean">
      <density>1000</density>
      <E>13988276346.0</E>
      <v>0.3</v>
    </material>
    <material id="19" type="neo-Hookean">
      <density>1000</density>
      <E>13987793934.0</E>
      <v>0.3</v>
    </material>
    <material id="20" type="neo-Hookean">
      <density>1000</density>
      <E>13987410269.0</E>
      <v>0.3</v>
    </material>
    <material id="21" type="neo-Hookean">
      <density>1000</density>
      <E>13987140294.0</E>
      <v>0.3</v>
    </material>
    <material id="22" type="neo-Hookean">
      <density>1000</density>
      <E>13986998034.0</E>
      <v>0.3</v>
    </material>
    <material id="23" type="neo-Hookean">
      <density>1000</density>
      <E>13986989925.0</E>
      <v>0.3</v>
    </material>
    <material id="24" type="neo-Hookean">
      <density>1000</density>
      <E>13987111727.0</E>
      <v>0.3</v>
    </material>
    <material id="25" type="neo-Hookean">
      <density>1000</density>
      <E>13987362790.0</E>
      <v>0.3</v>
    </material>
    <material id="26" type="neo-Hookean">
      <density>1000</density>
      <E>13987738889.0</E>
      <v>0.3</v>
    </material>
    <material id="27" type="neo-Hookean">
      <density>1000</density>
      <E>13988233554.0</E>
      <v>0.3</v>
    </material>
    <material id="28" type="neo-Hookean">
      <density>1000</density>
      <E>13988832621.0</E>
      <v>0.3</v>
    </material>
    <material id="29" type="neo-Hookean">
      <density>1000</density>
      <E>13989521994.0</E>
      <v>0.3</v>
    </material>
    <material id="30" type="neo-Hookean">
      <density>1000</density>
      <E>13990284614.0</E>
      <v>0.3</v>
    </material>
    <material id="31" type="neo-Hookean">
      <density>1000</density>
      <E>13991098841.0</E>
      <v>0.3</v>
    </material>
    <material id="32" type="neo-Hookean">
      <density>1000</density>
      <E>13991955255.0</E>
      <v>0.3</v>
    </material>
    <material id="33" type="neo-Hookean">
      <density>1000</density>
      <E>13992828371.0</E>
      <v>0.3</v>
    </material>
    <material id="34" type="neo-Hookean">
      <density>1000</density>
      <E>13993694599.0</E>
      <v>0.3</v>
    </material>
    <material id="35" type="neo-Hookean">
      <density>1000</density>
      <E>13994543776.0</E>
      <v>0.3</v>
    </material>
    <material id="36" type="neo-Hookean">
      <density>1000</density>
      <E>13995355765.0</E>
      <v>0.3</v>
    </material>
    <material id="37" type="neo-Hookean">
      <density>1000</density>
      <E>13996113255.0</E>
      <v>0.3</v>
    </material>
    <material id="38" type="neo-Hookean">
      <density>1000</density>
      <E>13996805458.0</E>
      <v>0.3</v>
    </material>
    <material id="39" type="neo-Hookean">
      <density>1000</density>
      <E>13997418625.0</E>
      <v>0.3</v>
    </material>
    <material id="40" type="neo-Hookean">
      <density>1000</density>
      <E>13997949385.0</E>
      <v>0.3</v>
    </material>
    <material id="41" type="neo-Hookean">
      <density>1000</density>
      <E>13998387922.0</E>
      <v>0.3</v>
    </material>
    <material id="42" type="neo-Hookean">
      <density>1000</density>
      <E>13998733384.0</E>
      <v>0.3</v>
    </material>
    <material id="43" type="neo-Hookean">
      <density>1000</density>
      <E>13998990669.0</E>
      <v>0.3</v>
    </material>
    <material id="44" type="neo-Hookean">
      <density>1000</density>
      <E>13999155887.0</E>
      <v>0.3</v>
    </material>
    <material id="45" type="neo-Hookean">
      <density>1000</density>
      <E>13999238929.0</E>
      <v>0.3</v>
    </material>
    <material id="46" type="neo-Hookean">
      <density>1000</density>
      <E>13999247022.0</E>
      <v>0.3</v>
    </material>
    <material id="47" type="neo-Hookean">
      <density>1000</density>
      <E>13999189664.0</E>
      <v>0.3</v>
    </material>
    <material id="48" type="neo-Hookean">
      <density>1000</density>
      <E>13999078292.0</E>
      <v>0.3</v>
    </material>
    <material id="49" type="neo-Hookean">
      <density>1000</density>
      <E>13998923621.0</E>
      <v>0.3</v>
    </material>
    <material id="50" type="neo-Hookean">
      <density>1000</density>
      <E>13998747031.0</E>
      <v>0.3</v>
    </material>
    <material id="51" type="neo-Hookean">
      <density>1000</density>
      <E>13998687736.0</E>
      <v>0.3</v>
    </material>
    <material id="52" type="neo-Hookean">
      <density>1000</density>
      <E>13998649317.0</E>
      <v>0.3</v>
    </material>
    <material id="53" type="neo-Hookean">
      <density>1000</density>
      <E>13998789884.0</E>
      <v>0.3</v>
    </material>
    <material id="54" type="neo-Hookean">
      <density>1000</density>
      <E>13999263028.0</E>
      <v>0.3</v>
    </material>
    <material id="55" type="neo-Hookean">
      <density>1000</density>
      <E>14000312925.0</E>
      <v>0.3</v>
    </material>
    <material id="56" type="neo-Hookean">
      <density>1000</density>
      <E>14002329208.0</E>
      <v>0.3</v>
    </material>
    <material id="57" type="neo-Hookean">
      <density>1000</density>
      <E>14005885876.0</E>
      <v>0.3</v>
    </material>
    <material id="58" type="neo-Hookean">
      <density>1000</density>
      <E>14011774287.0</E>
      <v>0.3</v>
    </material>
    <material id="59" type="neo-Hookean">
      <density>1000</density>
      <E>14021018828.0</E>
      <v>0.3</v>
    </material>
    <material id="60" type="neo-Hookean">
      <density>1000</density>
      <E>14034823851.0</E>
      <v>0.3</v>
    </material>
    <material id="61" type="neo-Hookean">
      <density>1000</density>
      <E>14054445299.0</E>
      <v>0.3</v>
    </material>
    <material id="62" type="neo-Hookean">
      <density>1000</density>
      <E>14080981927.0</E>
      <v>0.3</v>
    </material>
    <material id="63" type="neo-Hookean">
      <density>1000</density>
      <E>14115076014.0</E>
      <v>0.3</v>
    </material>
    <material id="64" type="neo-Hookean">
      <density>1000</density>
      <E>14156572468.0</E>
      <v>0.3</v>
    </material>
    <material id="65" type="neo-Hookean">
      <density>1000</density>
      <E>14204227556.0</E>
      <v>0.3</v>
    </material>
    <material id="66" type="neo-Hookean">
      <density>1000</density>
      <E>14255562724.0</E>
      <v>0.3</v>
    </material>
    <material id="67" type="neo-Hookean">
      <density>1000</density>
      <E>14306942599.0</E>
      <v>0.3</v>
    </material>
    <material id="68" type="neo-Hookean">
      <density>1000</density>
      <E>14353918353.0</E>
      <v>0.3</v>
    </material>
    <material id="69" type="neo-Hookean">
      <density>1000</density>
      <E>14391834034.0</E>
      <v>0.3</v>
    </material>
    <material id="70" type="neo-Hookean">
      <density>1000</density>
      <E>14416582051.0</E>
      <v>0.3</v>
    </material>
    <material id="71" type="neo-Hookean">
      <density>1000</density>
      <E>14425331186.0</E>
      <v>0.3</v>
    </material>
    <material id="72" type="neo-Hookean">
      <density>1000</density>
      <E>14417063989.0</E>
      <v>0.3</v>
    </material>
    <material id="73" type="neo-Hookean">
      <density>1000</density>
      <E>14392777888.0</E>
      <v>0.3</v>
    </material>
    <material id="74" type="neo-Hookean">
      <density>1000</density>
      <E>14355278554.0</E>
      <v>0.3</v>
    </material>
    <material id="75" type="neo-Hookean">
      <density>1000</density>
      <E>14308655865.0</E>
      <v>0.3</v>
    </material>
    <material id="76" type="neo-Hookean">
      <density>1000</density>
      <E>14257546204.0</E>
      <v>0.3</v>
    </material>
    <material id="77" type="neo-Hookean">
      <density>1000</density>
      <E>14206384502.0</E>
      <v>0.3</v>
    </material>
    <material id="78" type="neo-Hookean">
      <density>1000</density>
      <E>14158801198.0</E>
      <v>0.3</v>
    </material>
    <material id="79" type="neo-Hookean">
      <density>1000</density>
      <E>14117264210.0</E>
      <v>0.3</v>
    </material>
    <material id="80" type="neo-Hookean">
      <density>1000</density>
      <E>14083016936.0</E>
      <v>0.3</v>
    </material>
    <material id="81" type="neo-Hookean">
      <density>1000</density>
      <E>14056211433.0</E>
      <v>0.3</v>
    </material>
    <material id="82" type="neo-Hookean">
      <density>1000</density>
      <E>14036214714.0</E>
      <v>0.3</v>
    </material>
    <material id="83" type="neo-Hookean">
      <density>1000</density>
      <E>14021949328.0</E>
      <v>0.3</v>
    </material>
    <material id="84" type="neo-Hookean">
      <density>1000</density>
      <E>14012161996.0</E>
      <v>0.3</v>
    </material>
    <material id="85" type="neo-Hookean">
      <density>1000</density>
      <E>14005669189.0</E>
      <v>0.3</v>
    </material>
    <material id="86" type="neo-Hookean">
      <density>1000</density>
      <E>14001470902.0</E>
      <v>0.3</v>
    </material>
    <material id="87" type="neo-Hookean">
      <density>1000</density>
      <E>13998788973.0</E>
      <v>0.3</v>
    </material>
    <material id="88" type="neo-Hookean">
      <density>1000</density>
      <E>13997080798.0</E>
      <v>0.3</v>
    </material>
    <material id="89" type="neo-Hookean">
      <density>1000</density>
      <E>13995981527.0</E>
      <v>0.3</v>
    </material>
    <material id="90" type="neo-Hookean">
      <density>1000</density>
      <E>13995259469.0</E>
      <v>0.3</v>
    </material>
    <material id="91" type="neo-Hookean">
      <density>1000</density>
      <E>13994783485.0</E>
      <v>0.3</v>
    </material>
    <material id="92" type="neo-Hookean">
      <density>1000</density>
      <E>13994420342.0</E>
      <v>0.3</v>
    </material>
    <material id="93" type="neo-Hookean">
      <density>1000</density>
      <E>13994274015.0</E>
      <v>0.3</v>
    </material>
    <material id="94" type="neo-Hookean">
      <density>1000</density>
      <E>13994215022.0</E>
      <v>0.3</v>
    </material>
    <material id="95" type="neo-Hookean">
      <density>1000</density>
      <E>13994234904.0</E>
      <v>0.3</v>
    </material>
    <material id="96" type="neo-Hookean">
      <density>1000</density>
      <E>13994324008.0</E>
      <v>0.3</v>
    </material>
    <material id="97" type="neo-Hookean">
      <density>1000</density>
      <E>13994471149.0</E>
      <v>0.3</v>
    </material>
    <material id="98" type="neo-Hookean">
      <density>1000</density>
      <E>13994657020.0</E>
      <v>0.3</v>
    </material>
    <material id="99" type="neo-Hookean">
      <density>1000</density>
      <E>13994869268.0</E>
      <v>0.3</v>
    </material>
    <material id="100" type="neo-Hookean">
      <density>1000</density>
      <E>13995088371.0</E>
      <v>0.3</v>
    </material>
    <material id="101" type="neo-Hookean">
      <density>1000</density>
      <E>13995290551.0</E>
      <v>0.3</v>
    </material>
  </Material>
  <Geometry>
    <Nodes>
      <node id="1">0.0000000000, 0.00, 0.00</node>
      <node id="2">0.0039603960, 0.00, 0.00</node>
      <node id="3">0.0079207921, 0.00, 0.00</node>
      <node id="4">0.0118811881, 0.00, 0.00</node>
      <node id="5">0.0158415842, 0.00, 0.00</node>
      <node id="6">0.0198019802, 0.00, 0.00</node>
      <node id="7">0.0237623762, 0.00, 0.00</node>
      <node id="8">0.0277227723, 0.00, 0.00</node>
      <node id="9">0.0316831683, 0.00, 0.00</node>
      <node id="10">0.0356435644, 0.00, 0.00</node>
      <node id="11">0.0396039604, 0.00, 0.00</node>
      <node id="12">0.0435643564, 0.00, 0.00</node>
      <node id="13">0.0475247525, 0.00, 0.00</node>
      <node id="14">0.0514851485, 0.00, 0.00</node>
      <node id="15">0.0554455446, 0.00, 0.00</node>
      <node id="16">0.0594059406, 0.00, 0.00</node>
      <node id="17">0.0633663366, 0.00, 0.00</node>
      <node id="18">0.0673267327, 0.00, 0.00</node>
      <node id="19">0.0712871287, 0.00, 0.00</node>
      <node id="20">0.0752475248, 0.00, 0.00</node>
<!-- ... 388 like lines cut -->
    </Nodes>
    <Elements elset="Part1" mat="1" type="hex8">
      <elem id="1">1, 2, 104, 103, 205, 206, 308, 307</elem>
    </Elements>
    <Elements elset="Part1" mat="2" type="hex8">
      <elem id="2">2, 3, 105, 104, 206, 207, 309, 308</elem>
    </Elements>
    <Elements elset="Part1" mat="3" type="hex8">
      <elem id="3">3, 4, 106, 105, 207, 208, 310, 309</elem>
    </Elements>
    <Elements elset="Part1" mat="4" type="hex8">
      <elem id="4">4, 5, 107, 106, 208, 209, 311, 310</elem>
    </Elements>
    <Elements elset="Part1" mat="5" type="hex8">
      <elem id="5">5, 6, 108, 107, 209, 210, 312, 311</elem>
    </Elements>
    <Elements elset="Part1" mat="6" type="hex8">
      <elem id="6">6, 7, 109, 108, 210, 211, 313, 312</elem>
    </Elements>
    <Elements elset="Part1" mat="7" type="hex8">
      <elem id="7">7, 8, 110, 109, 211, 212, 314, 313</elem>
    </Elements>
    <Elements elset="Part1" mat="8" type="hex8">
      <elem id="8">8, 9, 111, 110, 212, 213, 315, 314</elem>
    </Elements>
    <Elements elset="Part1" mat="9" type="hex8">
      <elem id="9">9, 10, 112, 111, 213, 214, 316, 315</elem>
    </Elements>
    <Elements elset="Part1" mat="10" type="hex8">
      <elem id="10">10, 11, 113, 112, 214, 215, 317, 316</elem>
    </Elements>
    <Elements elset="Part1" mat="11" type="hex8">
      <elem id="11">11, 12, 114, 113, 215, 216, 318, 317</elem>
    </Elements>
    <Elements elset="Part1" mat="12" type="hex8">
      <elem id="12">12, 13, 115, 114, 216, 217, 319, 318</elem>
    </Elements>
    <Elements elset="Part1" mat="13" type="hex8">
      <elem id="13">13, 14, 116, 115, 217, 218, 320, 319</elem>
    </Elements>
    <Elements elset="Part1" mat="14" type="hex8">
      <elem id="14">14, 15, 117, 116, 218, 219, 321, 320</elem>
    </Elements>
    <Elements elset="Part1" mat="15" type="hex8">
      <elem id="15">15, 16, 118, 117, 219, 220, 322, 321</elem>
    </Elements>
    <Elements elset="Part1" mat="16" type="hex8">
      <elem id="16">16, 17, 119, 118, 220, 221, 323, 322</elem>
    </Elements>
    <Elements elset="Part1" mat="17" type="hex8">
      <elem id="17">17, 18, 120, 119, 221, 222, 324, 323</elem>
    </Elements>
    <Elements elset="Part1" mat="18" type="hex8">
      <elem id="18">18, 19, 121, 120, 222, 223, 325, 324</elem>
    </Elements>
    <Elements elset="Part1" mat="19" type="hex8">
      <elem id="19">19, 20, 122, 121, 223, 224, 326, 325</elem>
    </Elements>
    <Elements elset="Part1" mat="20" type="hex8">
      <elem id="20">20, 21, 123, 122, 224, 225, 327, 326</elem>
    </Elements>
    <Elements elset="Part1" mat="21" type="hex8">
      <elem id="21">21, 22, 124, 123, 225, 226, 328, 327</elem>
    </Elements>
    <Elements elset="Part1" mat="22" type="hex8">
      <elem id="22">22, 23, 125, 124, 226, 227, 329, 328</elem>
    </Elements>
    <Elements elset="Part1" mat="23" type="hex8">
      <elem id="23">23, 24, 126, 125, 227, 228, 330, 329</elem>
    </Elements>
    <Elements elset="Part1" mat="24" type="hex8">
      <elem id="24">24, 25, 127, 126, 228, 229, 331, 330</elem>
    </Elements>
    <Elements elset="Part1" mat="25" type="hex8">
      <elem id="25">25, 26, 128, 127, 229, 230, 332, 331</elem>
    </Elements>
    <Elements elset="Part1" mat="26" type="hex8">
      <elem id="26">26, 27, 129, 128, 230, 231, 333, 332</elem>
    </Elements>
    <Elements elset="Part1" mat="27" type="hex8">
      <elem id="27">27, 28, 130, 129, 231, 232, 334, 333</elem>
    </Elements>
    <Elements elset="Part1" mat="28" type="hex8">
      <elem id="28">28, 29, 131, 130, 232, 233, 335, 334</elem>
    </Elements>
    <Elements elset="Part1" mat="29" type="hex8">
      <elem id="29">29, 30, 132, 131, 233, 234, 336, 335</elem>
    </Elements>
    <Elements elset="Part1" mat="30" type="hex8">
      <elem id="30">30, 31, 133, 132, 234, 235, 337, 336</elem>
    </Elements>
    <Elements elset="Part1" mat="31" type="hex8">
      <elem id="31">31, 32, 134, 133, 235, 236, 338, 337</elem>
    </Elements>
    <Elements elset="Part1" mat="32" type="hex8">
      <elem id="32">32, 33, 135, 134, 236, 237, 339, 338</elem>
    </Elements>
    <Elements elset="Part1" mat="33" type="hex8">
      <elem id="33">33, 34, 136, 135, 237, 238, 340, 339</elem>
    </Elements>
    <Elements elset="Part1" mat="34" type="hex8">
      <elem id="34">34, 35, 137, 136, 238, 239, 341, 340</elem>
    </Elements>
    <Elements elset="Part1" mat="35" type="hex8">
      <elem id="35">35, 36, 138, 137, 239, 240, 342, 341</elem>
    </Elements>
    <Elements elset="Part1" mat="36" type="hex8">
      <elem id="36">36, 37, 139, 138, 240, 241, 343, 342</elem>
    </Elements>
    <Elements elset="Part1" mat="37" type="hex8">
      <elem id="37">37, 38, 140, 139, 241, 242, 344, 343</elem>
    </Elements>
    <Elements elset="Part1" mat="38" type="hex8">
      <elem id="38">38, 39, 141, 140, 242, 243, 345, 344</elem>
    </Elements>
    <Elements elset="Part1" mat="39" type="hex8">
      <elem id="39">39, 40, 142, 141, 243, 244, 346, 345</elem>
    </Elements>
    <Elements elset="Part1" mat="40" type="hex8">
      <elem id="40">40, 41, 143, 142, 244, 245, 347, 346</elem>
    </Elements>
    <Elements elset="Part1" mat="41" type="hex8">
      <elem id="41">41, 42, 144, 143, 245, 246, 348, 347</elem>
    </Elements>
    <Elements elset="Part1" mat="42" type="hex8">
      <elem id="42">42, 43, 145, 144, 246, 247, 349, 348</elem>
    </Elements>
    <Elements elset="Part1" mat="43" type="hex8">
      <elem id="43">43, 44, 146, 145, 247, 248, 350, 349</elem>
    </Elements>
    <Elements elset="Part1" mat="44" type="hex8">
      <elem id="44">44, 45, 147, 146, 248, 249, 351, 350</elem>
    </Elements>
    <Elements elset="Part1" mat="45" type="hex8">
      <elem id="45">45, 46, 148, 147, 249, 250, 352, 351</elem>
    </Elements>
    <Elements elset="Part1" mat="46" type="hex8">
      <elem id="46">46, 47, 149, 148, 250, 251, 353, 352</elem>
    </Elements>
    <Elements elset="Part1" mat="47" type="hex8">
      <elem id="47">47, 48, 150, 149, 251, 252, 354, 353</elem>
    </Elements>
    <Elements elset="Part1" mat="48" type="hex8">
      <elem id="48">48, 49, 151, 150, 252, 253, 355, 354</elem>
    </Elements>
    <Elements elset="Part1" mat="49" type="hex8">
      <elem id="49">49, 50, 152, 151, 253, 254, 356, 355</elem>
    </Elements>
    <Elements elset="Part1" mat="50" type="hex8">
      <elem id="50">50, 51, 153, 152, 254, 255, 357, 356</elem>
    </Elements>
    <Elements elset="Part1" mat="51" type="hex8">
      <elem id="51">51, 52, 154, 153, 255, 256, 358, 357</elem>
    </Elements>
    <Elements elset="Part1" mat="52" type="hex8">
      <elem id="52">52, 53, 155, 154, 256, 257, 359, 358</elem>
    </Elements>
    <Elements elset="Part1" mat="53" type="hex8">
      <elem id="53">53, 54, 156, 155, 257, 258, 360, 359</elem>
    </Elements>
    <Elements elset="Part1" mat="54" type="hex8">
      <elem id="54">54, 55, 157, 156, 258, 259, 361, 360</elem>
    </Elements>
    <Elements elset="Part1" mat="55" type="hex8">
      <elem id="55">55, 56, 158, 157, 259, 260, 362, 361</elem>
    </Elements>
    <Elements elset="Part1" mat="56" type="hex8">
      <elem id="56">56, 57, 159, 158, 260, 261, 363, 362</elem>
    </Elements>
    <Elements elset="Part1" mat="57" type="hex8">
      <elem id="57">57, 58, 160, 159, 261, 262, 364, 363</elem>
    </Elements>
    <Elements elset="Part1" mat="58" type="hex8">
      <elem id="58">58, 59, 161, 160, 262, 263, 365, 364</elem>
    </Elements>
    <Elements elset="Part1" mat="59" type="hex8">
      <elem id="59">59, 60, 162, 161, 263, 264, 366, 365</elem>
    </Elements>
    <Elements elset="Part1" mat="60" type="hex8">
      <elem id="60">60, 61, 163, 162, 264, 265, 367, 366</elem>
    </Elements>
    <Elements elset="Part1" mat="61" type="hex8">
      <elem id="61">61, 62, 164, 163, 265, 266, 368, 367</elem>
    </Elements>
    <Elements elset="Part1" mat="62" type="hex8">
      <elem id="62">62, 63, 165, 164, 266, 267, 369, 368</elem>
    </Elements>
    <Elements elset="Part1" mat="63" type="hex8">
      <elem id="63">63, 64, 166, 165, 267, 268, 370, 369</elem>
    </Elements>
    <Elements elset="Part1" mat="64" type="hex8">
      <elem id="64">64, 65, 167, 166, 268, 269, 371, 370</elem>
    </Elements>
    <Elements elset="Part1" mat="65" type="hex8">
      <elem id="65">65, 66, 168, 167, 269, 270, 372, 371</elem>
    </Elements>
    <Elements elset="Part1" mat="66" type="hex8">
      <elem id="66">66, 67, 169, 168, 270, 271, 373, 372</elem>
    </Elements>
    <Elements elset="Part1" mat="67" type="hex8">
      <elem id="67">67, 68, 170, 169, 271, 272, 374, 373</elem>
    </Elements>
    <Elements elset="Part1" mat="68" type="hex8">
      <elem id="68">68, 69, 171, 170, 272, 273, 375, 374</elem>
    </Elements>
    <Elements elset="Part1" mat="69" type="hex8">
      <elem id="69">69, 70, 172, 171, 273, 274, 376, 375</elem>
    </Elements>
    <Elements elset="Part1" mat="70" type="hex8">
      <elem id="70">70, 71, 173, 172, 274, 275, 377, 376</elem>
    </Elements>
    <Elements elset="Part1" mat="71" type="hex8">
      <elem id="71">71, 72, 174, 173, 275, 276, 378, 377</elem>
    </Elements>
    <Elements elset="Part1" mat="72" type="hex8">
      <elem id="72">72, 73, 175, 174, 276, 277, 379, 378</elem>
    </Elements>
    <Elements elset="Part1" mat="73" type="hex8">
      <elem id="73">73, 74, 176, 175, 277, 278, 380, 379</elem>
    </Elements>
    <Elements elset="Part1" mat="74" type="hex8">
      <elem id="74">74, 75, 177, 176, 278, 279, 381, 380</elem>
    </Elements>
    <Elements elset="Part1" mat="75" type="hex8">
      <elem id="75">75, 76, 178, 177, 279, 280, 382, 381</elem>
    </Elements>
    <Elements elset="Part1" mat="76" type="hex8">
      <elem id="76">76, 77, 179, 178, 280, 281, 383, 382</elem>
    </Elements>
    <Elements elset="Part1" mat="77" type="hex8">
      <elem id="77">77, 78, 180, 179, 281, 282, 384, 383</elem>
    </Elements>
    <Elements elset="Part1" mat="78" type="hex8">
      <elem id="78">78, 79, 181, 180, 282, 283, 385, 384</elem>
    </Elements>
    <Elements elset="Part1" mat="79" type="hex8">
      <elem id="79">79, 80, 182, 181, 283, 284, 386, 385</elem>
    </Elements>
    <Elements elset="Part1" mat="80" type="hex8">
      <elem id="80">80, 81, 183, 182, 284, 285, 387, 386</elem>
    </Elements>
    <Elements elset="Part1" mat="81" type="hex8">
      <elem id="81">81, 82, 184, 183, 285, 286, 388, 387</elem>
    </Elements>
    <Elements elset="Part1" mat="82" type="hex8">
      <elem id="82">82, 83, 185, 184, 286, 287, 389, 388</elem>
    </Elements>
    <Elements elset="Part1" mat="83" type="hex8">
      <elem id="83">83, 84, 186, 185, 287, 288, 390, 389</elem>
    </Elements>
    <Elements elset="Part1" mat="84" type="hex8">
      <elem id="84">84, 85, 187, 186, 288, 289, 391, 390</elem>
    </Elements>
    <Elements elset="Part1" mat="85" type="hex8">
      <elem id="85">85, 86, 188, 187, 289, 290, 392, 391</elem>
    </Elements>
    <Elements elset="Part1" mat="86" type="hex8">
      <elem id="86">86, 87, 189, 188, 290, 291, 393, 392</elem>
    </Elements>
    <Elements elset="Part1" mat="87" type="hex8">
      <elem id="87">87, 88, 190, 189, 291, 292, 394, 393</elem>
    </Elements>
    <Elements elset="Part1" mat="88" type="hex8">
      <elem id="88">88, 89, 191, 190, 292, 293, 395, 394</elem>
    </Elements>
    <Elements elset="Part1" mat="89" type="hex8">
      <elem id="89">89, 90, 192, 191, 293, 294, 396, 395</elem>
    </Elements>
    <Elements elset="Part1" mat="90" type="hex8">
      <elem id="90">90, 91, 193, 192, 294, 295, 397, 396</elem>
    </Elements>
    <Elements elset="Part1" mat="91" type="hex8">
      <elem id="91">91, 92, 194, 193, 295, 296, 398, 397</elem>
    </Elements>
    <Elements elset="Part1" mat="92" type="hex8">
      <elem id="92">92, 93, 195, 194, 296, 297, 399, 398</elem>
    </Elements>
    <Elements elset="Part1" mat="93" type="hex8">
      <elem id="93">93, 94, 196, 195, 297, 298, 400, 399</elem>
    </Elements>
    <Elements elset="Part1" mat="94" type="hex8">
      <elem id="94">94, 95, 197, 196, 298, 299, 401, 400</elem>
    </Elements>
    <Elements elset="Part1" mat="95" type="hex8">
      <elem id="95">95, 96, 198, 197, 299, 300, 402, 401</elem>
    </Elements>
    <Elements elset="Part1" mat="96" type="hex8">
      <elem id="96">96, 97, 199, 198, 300, 301, 403, 402</elem>
    </Elements>
    <Elements elset="Part1" mat="97" type="hex8">
      <elem id="97">97, 98, 200, 199, 301, 302, 404, 403</elem>
    </Elements>
    <Elements elset="Part1" mat="98" type="hex8">
      <elem id="98">98, 99, 201, 200, 302, 303, 405, 404</elem>
    </Elements>
    <Elements elset="Part1" mat="99" type="hex8">
      <elem id="99">99, 100, 202, 201, 303, 304, 406, 405</elem>
    </Elements>
    <Elements elset="Part1" mat="100" type="hex8">
      <elem id="100">100, 101, 203, 202, 304, 305, 407, 406</elem>
    </Elements>
    <Elements elset="Part1" mat="101" type="hex8">
      <elem id="101">101, 102, 204, 203, 305, 306, 408, 407</elem>
    </Elements>
  </Geometry>
  <Boundary>
    <fix bc="xyz">
      <node id="1" />
      <node id="103" />
      <node id="205" />
      <node id="307" />
    </fix>
  </Boundary>
  <Loads>
    <nodal_load bc="x" lc="1">
      <node id="102">-2000</node>
      <node id="204">-2000</node>
      <node id="306">-2000</node>
      <node id="408">-2000</node>
    </nodal_load>
  </Loads>
  <LoadData>
    <loadcurve id="1" type="smooth">
      <loadpoint>0, 0</loadpoint>
      <loadpoint>1, 1</loadpoint>
    </loadcurve>
  </LoadData>
  <Output>
    <plotfile type="febio">
      <var type="displacement" />
      <var type="stress" />
      <shell_strain>1</shell_strain>
    </plotfile>
    <logfile>
      <element_data data="Ex;Ey;Ez;Exy;Eyz;Exz;sx;sy;sz;sxy;syz;sxz">1:101</element_data>
    </logfile>
  </Output>
</febio_spec>